*SPEF "IEEE 1481.1999"
*DESIGN "spi_slave"
*DATE "18:57:05 Wednesday February 10, 2021"
*VENDOR "unknown"
*PROGRAM "qrouter"
*VERSION "unknown"
*DESIGN_FLOW "qflow"
*DIVIDER /
*DELIMITER :
*BUS_DELIMITER <>
*T_UNIT 1 PS
*C_UNIT 1 FF
*R_UNIT 1 OHM
*L_UNIT 1 HENRY

*NAME_MAP
*1 _38_
*2 INVX8_2
*3 AOI21X1_14
*4 OAI21X1_18
*5 NAND2X1_18
*6 NOR2X1_7
*7 OAI21X1_41
*8 OAI21X1_22
*9 OAI21X1_40
*10 NAND3X1_10
*11 OAI21X1_38
*12 OAI21X1_42
*13 OAI21X1_15
*14 NAND2X1_8
*15 NOR2X1_4
*16 _158_
*17 INVX8_1
*18 OAI21X1_13
*19 NAND2X1_21
*20 NAND3X1_8
*21 AOI21X1_9
*22 NAND2X1_22
*23 OAI21X1_27
*24 AOI22X1_1
*25 OAI21X1_12
*26 OAI21X1_40
*27 OAI21X1_2
*28 OAI21X1_33
*29 _7_
*30 NAND2X1_9
*31 AOI21X1_6
*32 MUX2X1_2
*33 MUX2X1_4
*34 AOI21X1_4
*35 AOI21X1_5
*36 AOI21X1_3
*37 AOI21X1_8
*38 MUX2X1_6
*39 AOI21X1_7
*40 DFFSR_28
*41 _14_
*42 INVX4_3
*43 DFFSR_33
*44 DFFSR_34
*45 DFFSR_30
*46 DFFSR_37
*47 DFFSR_36
*48 DFFSR_35
*49 DFFSR_29
*50 DFFSR_28
*51 DFFSR_31
*52 DFFSR_32
*53 addr[4]
*54 DFFSR_9
*55 INVX1_10
*56 NAND2X1_20
*57 AND2X2_8
*58 NOR2X1_19
*59 NAND2X1_29
*60 NAND2X1_5
*61 AOI21X1_17
*62 AND2X2_9
*63 AND2X2_3
*64 _50_
*65 INVX8_3
*66 AOI21X1_7
*67 AOI21X1_8
*68 OAI21X1_8
*69 OAI21X1_10
*70 AOI21X1_5
*71 OAI21X1_4
*72 AOI21X1_6
*73 OAI21X1_6
*74 OAI21X1_33
*75 _32_
*76 INVX4_1
*77 NOR2X1_6
*78 NAND2X1_8
*79 NOR2X1_3
*80 NOR2X1_8
*81 OAI21X1_5
*82 OAI21X1_3
*83 OAI21X1_7
*84 OAI21X1_9
*85 _33_
*86 NAND3X1_3
*87 AOI21X1_2
*88 INVX2_4
*89 OAI21X1_14
*90 NOR2X1_3
*91 OAI21X1_15
*92 NOR2X1_9
*93 OAI21X1_13
*94 NAND2X1_15
*95 _13__bF_buf5
*96 BUFX4_1
*97 DFFSR_21
*98 DFFSR_27
*99 DFFSR_20
*100 DFFSR_30
*101 DFFSR_26
*102 DFFSR_34
*103 DFFSR_24
*104 count[1]
*105 DFFSR_14
*106 INVX1_3
*107 NAND2X1_25
*108 AND2X2_5
*109 NAND3X1_3
*110 NOR2X1_11
*111 OAI21X1_23
*112 OAI21X1_24
*113 _89_
*114 NAND2X1_21
*115 MUX2X1_7
*116 MUX2X1_8
*117 MUX2X1_12
*118 MUX2X1_13
*119 MUX2X1_10
*120 MUX2X1_11
*121 MUX2X1_9
*122 SCK_bF_buf4
*123 CLKBUF1_1
*124 DFFSR_4
*125 DFFSR_12
*126 DFFSR_11
*127 DFFSR_9
*128 DFFSR_10
*129 DFFSR_8
*130 SCK_bF_buf3
*131 CLKBUF1_2
*132 DFFSR_18
*133 DFFSR_20
*134 DFFSR_27
*135 DFFSR_26
*136 DFFSR_16
*137 INVX4_3
*138 SCK_bF_buf2
*139 CLKBUF1_3
*140 DFFSR_17
*141 DFFSR_14
*142 DFFSR_1
*143 DFFSR_19
*144 DFFSR_3
*145 DFFSR_13
*146 _13_
*147 INVX8_4
*148 BUFX4_6
*149 BUFX4_1
*150 BUFX4_5
*151 BUFX4_2
*152 BUFX4_3
*153 BUFX4_4
*154 _13__bF_buf4
*155 BUFX4_2
*156 DFFSR_14
*157 DFFSR_17
*158 DFFSR_29
*159 DFFSR_28
*160 DFFSR_31
*161 DFFSR_32
*162 _13__bF_buf3
*163 BUFX4_3
*164 DFFSR_13
*165 DFFSR_6
*166 DFFSR_2
*167 DFFSR_15
*168 DFFSR_5
*169 DFFSR_7
*170 _13__bF_buf2
*171 BUFX4_4
*172 DFFSR_23
*173 DFFSR_22
*174 DFFSR_35
*175 DFFSR_36
*176 DFFSR_37
*177 DFFSR_25
*178 _13__bF_buf1
*179 BUFX4_5
*180 DFFSR_3
*181 DFFSR_19
*182 DFFSR_18
*183 DFFSR_33
*184 DFFSR_16
*185 DFFSR_1
*186 _13__bF_buf0
*187 BUFX4_6
*188 DFFSR_12
*189 DFFSR_11
*190 DFFSR_10
*191 DFFSR_9
*192 DFFSR_8
*193 DFFSR_4
*194 state[0_bF_buf3]
*195 BUFX4_7
*196 OAI22X1_2
*197 NOR2X1_15
*198 AOI22X1_4
*199 NAND2X1_1
*200 NAND3X1_7
*201 NAND2X1_24
*202 state[0_bF_buf2]
*203 BUFX4_8
*204 OAI21X1_38
*205 AOI21X1_15
*206 NOR2X1_12
*207 OAI21X1_29
*208 INVX8_1
*209 AOI21X1_18
*210 state[0_bF_buf1]
*211 BUFX4_9
*212 NAND2X1_26
*213 AOI22X1_3
*214 AOI22X1_6
*215 OAI21X1_30
*216 NOR2X1_4
*217 AOI21X1_12
*218 state[2_bF_buf3]
*219 BUFX4_11
*220 NOR2X1_20
*221 NAND2X1_15
*222 NOR2X1_1
*223 NAND2X1_20
*224 NOR2X1_17
*225 OAI21X1_17
*226 addr[3]
*227 DFFSR_8
*228 AOI21X1_15
*229 NAND2X1_19
*230 NOR2X1_17
*231 INVX1_7
*232 AND2X2_2
*233 NAND2X1_4
*234 fixed[0]
*235 DFFSR_18
*236 OAI21X1_25
*237 AND2X2_6
*238 OAI21X1_27
*239 NAND2X1_6
*240 AND2X2_4
*241 INVX1_19
*242 count[2]
*243 DFFSR_15
*244 INVX1_20
*245 AND2X2_5
*246 NAND3X1_3
*247 OAI21X1_23
*248 OAI21X1_24
*249 NOR2X1_5
*250 _46_
*251 NOR2X1_5
*252 NAND2X1_24
*253 MUX2X1_1
*254 MUX2X1_3
*255 INVX8_3
*256 AOI21X1_3
*257 MUX2X1_5
*258 SCK
*259 CLKBUF1_5
*260 CLKBUF1_4
*261 CLKBUF1_2
*262 CLKBUF1_3
*263 CLKBUF1_1
*264 SCK_bF_buf1
*265 CLKBUF1_4
*266 DFFSR_21
*267 DFFSR_24
*268 DFFSR_25
*269 DFFSR_22
*270 DFFSR_23
*271 SCK_bF_buf0
*272 CLKBUF1_5
*273 DFFSR_7
*274 DFFSR_5
*275 DFFSR_15
*276 DFFSR_6
*277 DFFSR_2
*278 state[0_bF_buf0]
*279 BUFX4_10
*280 OAI21X1_36
*281 AOI21X1_14
*282 AOI21X1_17
*283 AOI21X1_10
*284 NAND3X1_9
*285 state[2_bF_buf2]
*286 BUFX4_12
*287 NAND2X1_16
*288 NAND2X1_2
*289 AOI21X1_15
*290 OAI21X1_21
*291 OAI21X1_19
*292 state[2_bF_buf1]
*293 BUFX4_13
*294 NOR2X1_8
*295 AOI21X1_17
*296 OAI21X1_16
*297 NAND2X1_19
*298 OAI21X1_1
*299 state[2_bF_buf0]
*300 BUFX4_14
*301 OAI21X1_37
*302 INVX8_2
*303 NAND2X1_17
*304 AOI22X1_5
*305 OAI21X1_20
*306 addr[0]
*307 DFFSR_5
*308 NAND2X1_26
*309 INVX2_5
*310 AND2X2_1
*311 NAND2X1_3
*312 NAND2X1_17
*313 addr[2]
*314 DFFSR_7
*315 INVX1_8
*316 NAND2X1_18
*317 NAND2X1_28
*318 NAND2X1_4
*319 AND2X2_2
*320 addr[5]
*321 DFFSR_10
*322 INVX2_7
*323 NAND2X1_5
*324 NOR3X1_4
*325 AND2X2_3
*326 AOI22X1_5
*327 fixed[2]
*328 DFFSR_20
*329 NOR2X1_10
*330 NAND3X1_8
*331 NAND2X1_22
*332 OAI21X1_26
*333 NOR2X1_2
*334 fixed[1]
*335 DFFSR_19
*336 AOI21X1_10
*337 OR2X2_1
*338 OAI21X1_30
*339 OAI21X1_26
*340 NOR2X1_2
*341 state[1]
*342 DFFSR_3
*343 NAND3X1_2
*344 NAND3X1_5
*345 NAND2X1_9
*346 INVX4_1
*347 OAI21X1_14
*348 count[0]
*349 DFFSR_13
*350 NAND3X1_2
*351 INVX2_2
*352 NAND3X1_3
*353 OAI21X1_23
*354 XNOR2X1_1
*355 _31_
*356 NAND2X1_6
*357 OAI21X1_14
*358 NAND3X1_11
*359 NAND3X1_4
*360 NAND2X1_27
*361 NAND3X1_10
*362 _98_
*363 INVX4_2
*364 AOI21X1_10
*365 NOR2X1_10
*366 AOI21X1_9
*367 OAI21X1_25
*368 NAND3X1_7
*369 state[0]
*370 DFFSR_2
*371 BUFX4_8
*372 BUFX4_10
*373 BUFX4_7
*374 BUFX4_9
*375 state[2]
*376 DFFSR_4
*377 BUFX4_12
*378 BUFX4_13
*379 BUFX4_11
*380 BUFX4_14
*381 addr[1]
*382 DFFSR_6
*383 INVX2_6
*384 NAND2X1_3
*385 AND2X2_1
*386 OAI21X1_38
*387 _34_
*388 NOR2X1_3
*389 NAND3X1_11
*390 NAND3X1_4
*391 NAND2X1_27
*392 NAND3X1_10
*393 readmode
*394 DFFSR_17
*395 NAND2X1_23
*396 AOI22X1_1
*397 NAND2X1_9
*398 INVX2_3
*399 _43_
*400 INVX2_2
*401 NOR2X1_13
*402 OAI21X1_35
*403 NOR2X1_11
*404 NAND2X1_10
*405 _48_
*406 INVX2_3
*407 OAI21X1_5
*408 OAI21X1_3
*409 OAI21X1_7
*410 OAI21X1_9
*411 _68_
*412 INVX2_4
*413 OAI21X1_11
*414 NAND3X1_5
*415 OAI21X1_12
*416 NAND3X1_6
*417 SDI
*418 BUFX2_10
*419 INVX2_8
*420 BUFX2_21
*421 NAND2X1_16
*422 _84_
*423 INVX2_7
*424 AOI22X1_4
*425 AOI21X1_16
*426 OAI21X1_21
*427 OAI21X1_22
*428 _86_
*429 INVX2_8
*430 MUX2X1_7
*431 AOI21X1_9
*432 OAI21X1_34
*433 OAI21X1_32
*434 addr[7]
*435 DFFSR_12
*436 NOR3X1_3
*437 NAND2X1_1
*438 OAI21X1_1
*439 _159_
*440 INVX2_1
*441 AOI22X1_6
*442 NOR2X1_1
*443 NAND2X1_2
*444 _160_
*445 NOR2X1_1
*446 AOI21X1_1
*447 INVX1_1
*448 AOI22X1_5
*449 _19_
*450 AND2X2_4
*451 NAND3X1_5
*452 NOR2X1_14
*453 NOR3X1_1
*454 _27_
*455 NAND2X1_3
*456 NOR2X1_18
*457 NOR3X1_2
*458 OAI21X1_39
*459 _73_
*460 INVX2_5
*461 MUX2X1_14
*462 OAI21X1_16
*463 NOR2X1_15
*464 _75_
*465 INVX2_6
*466 OAI21X1_17
*467 OAI21X1_40
*468 OAI21X1_18
*469 _88_
*470 NOR2X1_8
*471 NAND3X1_6
*472 NAND2X1_21
*473 OAI21X1_26
*474 _121_
*475 NOR2X1_12
*476 NOR2X1_13
*477 OAI21X1_35
*478 XNOR2X1_1
*479 _132_
*480 NAND2X1_27
*481 NOR3X1_4
*482 OR2X2_2
*483 NOR2X1_16
*484 _142_
*485 NOR2X1_18
*486 NAND2X1_29
*487 NAND3X1_11
*488 AND2X2_9
*489 addr[6]
*490 DFFSR_11
*491 INVX2_1
*492 NOR2X1_20
*493 _161_
*494 AND2X2_1
*495 NAND3X1_1
*496 NAND2X1_28
*497 _18_
*498 NOR2X1_2
*499 AND2X2_4
*500 NAND2X1_6
*501 _20_
*502 AND2X2_5
*503 AOI22X1_2
*504 NAND3X1_2
*505 _21_
*506 NAND3X1_2
*507 NOR2X1_14
*508 NOR3X1_1
*509 _22_
*510 NOR3X1_1
*511 AOI21X1_18
*512 AOI21X1_1
*513 _24_
*514 OAI21X1_1
*515 AOI21X1_1
*516 INVX1_11
*517 _26_
*518 INVX1_1
*519 NOR3X1_3
*520 OAI21X1_22
*521 _28_
*522 NAND2X1_4
*523 NOR2X1_18
*524 NOR3X1_2
*525 _35_
*526 NAND3X1_4
*527 AOI22X1_5
*528 NOR3X1_3
*529 _39_
*530 NAND2X1_8
*531 AOI21X1_2
*532 NOR2X1_12
*533 _164_
*534 DFFSR_1
*535 BUFX2_18
*536 AOI22X1_1
*537 _42_
*538 INVX1_2
*539 AOI21X1_4
*540 AOI21X1_5
*541 _44_
*542 INVX1_3
*543 OAI21X1_35
*544 NAND2X1_10
*545 ldata[1]
*546 DFFSR_31
*547 OAI21X1_3
*548 MUX2X1_1
*549 _53_
*550 INVX1_4
*551 MUX2X1_2
*552 AOI21X1_6
*553 ldata[3]
*554 DFFSR_33
*555 OAI21X1_5
*556 MUX2X1_3
*557 _58_
*558 INVX1_5
*559 AOI21X1_7
*560 MUX2X1_4
*561 ldata[5]
*562 DFFSR_35
*563 MUX2X1_5
*564 OAI21X1_7
*565 _63_
*566 INVX1_6
*567 AOI21X1_8
*568 MUX2X1_6
*569 ldata[7]
*570 DFFSR_37
*571 OAI21X1_9
*572 BUFX2_1
*573 _166_
*574 DFFSR_29
*575 OAI21X1_11
*576 BUFX2_20
*577 writemode
*578 DFFSR_16
*579 OAI21X1_33
*580 OAI21X1_11
*581 _162_[0]
*582 OAI21X1_16
*583 MUX2X1_14
*584 BUFX2_2
*585 _77_
*586 NAND2X1_18
*587 OAI21X1_18
*588 OAI21X1_39
*589 _78_
*590 INVX1_7
*591 OAI22X1_2
*592 OAI21X1_19
*593 _79_
*594 INVX1_8
*595 NOR2X1_7
*596 AOI21X1_12
*597 _80_
*598 NOR2X1_7
*599 INVX1_9
*600 AOI21X1_13
*601 _82_
*602 INVX1_10
*603 OAI21X1_20
*604 AOI22X1_3
*605 _163_[1]
*606 DFFSR_21
*607 BUFX2_11
*608 INVX1_12
*609 _87_
*610 INVX1_12
*611 MUX2X1_7
*612 MUX2X1_8
*613 _163_[2]
*614 DFFSR_22
*615 BUFX2_12
*616 INVX1_13
*617 _90_
*618 INVX1_13
*619 MUX2X1_8
*620 MUX2X1_9
*621 _163_[3]
*622 DFFSR_23
*623 BUFX2_13
*624 INVX1_14
*625 _91_
*626 INVX1_14
*627 MUX2X1_10
*628 MUX2X1_9
*629 _163_[4]
*630 DFFSR_24
*631 BUFX2_14
*632 INVX1_15
*633 _92_
*634 INVX1_15
*635 MUX2X1_11
*636 MUX2X1_10
*637 _163_[5]
*638 DFFSR_25
*639 INVX1_16
*640 BUFX2_15
*641 _93_
*642 INVX1_16
*643 MUX2X1_12
*644 MUX2X1_11
*645 _163_[6]
*646 DFFSR_26
*647 BUFX2_16
*648 INVX1_17
*649 _94_
*650 INVX1_17
*651 MUX2X1_13
*652 MUX2X1_12
*653 _163_[7]
*654 DFFSR_27
*655 BUFX2_17
*656 INVX1_18
*657 _97_
*658 OAI21X1_24
*659 OAI21X1_30
*660 INVX4_2
*661 _102_
*662 NOR2X1_9
*663 OAI21X1_27
*664 AND2X2_6
*665 _105_
*666 INVX1_19
*667 NAND3X1_7
*668 NAND3X1_6
*669 _106_
*670 NAND3X1_6
*671 OAI21X1_29
*672 OR2X2_1
*673 _107_
*674 OR2X2_1
*675 OAI22X1_1
*676 NAND3X1_8
*677 _115_
*678 INVX1_20
*679 AOI22X1_2
*680 NAND3X1_9
*681 _117_
*682 NAND3X1_9
*683 NAND2X1_23
*684 OAI21X1_32
*685 _123_
*686 NOR2X1_13
*687 NAND2X1_25
*688 AOI22X1_2
*689 _124_
*690 NAND2X1_25
*691 AND2X2_7
*692 AOI22X1_2
*693 _125_
*694 NAND3X1_10
*695 OAI21X1_39
*696 MUX2X1_14
*697 _128_
*698 NOR2X1_14
*699 AOI21X1_16
*700 OAI21X1_37
*701 _133_
*702 NAND2X1_28
*703 NOR2X1_16
*704 OR2X2_2
*705 _134_
*706 OR2X2_2
*707 AOI21X1_11
*708 AOI21X1_14
*709 _143_
*710 NAND3X1_11
*711 NOR2X1_19
*712 AND2X2_8
*713 _157_
*714 NAND2X1_1
*715 NAND2X1_7
*716 _15_
*717 AND2X2_2
*718 NAND3X1_1
*719 _16_
*720 AND2X2_3
*721 NAND3X1_1
*722 _17_
*723 NAND3X1_1
*724 NOR3X1_1
*725 _23_
*726 NAND2X1_2
*727 OAI21X1_1
*728 _25_
*729 AOI21X1_1
*730 OAI21X1_2
*731 _29_
*732 NAND2X1_5
*733 NOR3X1_2
*734 _30_
*735 NOR3X1_2
*736 NAND3X1_4
*737 _36_
*738 NOR3X1_3
*739 OAI21X1_2
*740 _37_
*741 OAI21X1_2
*742 NAND2X1_7
*743 _0_[7]
*744 NAND2X1_7
*745 DFFSR_12
*746 _40_
*747 NOR2X1_4
*748 AOI22X1_1
*749 _41_
*750 AOI22X1_1
*751 AOI21X1_2
*752 _5_
*753 AOI21X1_2
*754 DFFSR_1
*755 ldata[0]
*756 DFFSR_30
*757 INVX1_2
*758 _45_
*759 NAND2X1_10
*760 NOR2X1_5
*761 idata[0]
*762 AOI21X1_3
*763 _47_
*764 AOI21X1_3
*765 AOI21X1_4
*766 _3_[0]
*767 AOI21X1_4
*768 DFFSR_30
*769 _49_
*770 OAI21X1_3
*771 NAND2X1_11
*772 _51_
*773 AOI21X1_5
*774 OAI21X1_4
*775 idata[1]
*776 OAI21X1_4
*777 _52_
*778 OAI21X1_4
*779 NAND2X1_11
*780 _3_[1]
*781 NAND2X1_11
*782 DFFSR_31
*783 ldata[2]
*784 DFFSR_32
*785 INVX1_4
*786 idata[2]
*787 MUX2X1_1
*788 _54_
*789 MUX2X1_1
*790 MUX2X1_2
*791 _3_[2]
*792 MUX2X1_2
*793 DFFSR_32
*794 _55_
*795 OAI21X1_5
*796 NAND2X1_12
*797 _56_
*798 AOI21X1_6
*799 OAI21X1_6
*800 idata[3]
*801 OAI21X1_6
*802 _57_
*803 OAI21X1_6
*804 NAND2X1_12
*805 _3_[3]
*806 NAND2X1_12
*807 DFFSR_33
*808 ldata[4]
*809 DFFSR_34
*810 INVX1_5
*811 idata[4]
*812 MUX2X1_3
*813 _59_
*814 MUX2X1_3
*815 MUX2X1_4
*816 _3_[4]
*817 MUX2X1_4
*818 DFFSR_34
*819 _60_
*820 OAI21X1_7
*821 NAND2X1_13
*822 _61_
*823 AOI21X1_7
*824 OAI21X1_8
*825 idata[5]
*826 OAI21X1_8
*827 _62_
*828 OAI21X1_8
*829 NAND2X1_13
*830 _3_[5]
*831 NAND2X1_13
*832 DFFSR_35
*833 ldata[6]
*834 DFFSR_36
*835 INVX1_6
*836 idata[6]
*837 MUX2X1_5
*838 _64_
*839 MUX2X1_5
*840 MUX2X1_6
*841 _3_[6]
*842 MUX2X1_6
*843 DFFSR_36
*844 _65_
*845 OAI21X1_9
*846 NAND2X1_14
*847 _66_
*848 AOI21X1_8
*849 OAI21X1_10
*850 idata[7]
*851 OAI21X1_10
*852 _67_
*853 OAI21X1_10
*854 NAND2X1_14
*855 _3_[7]
*856 NAND2X1_14
*857 DFFSR_37
*858 _69_
*859 OAI21X1_11
*860 NOR2X1_6
*861 _9_
*862 NOR2X1_6
*863 DFFSR_29
*864 _70_
*865 NAND3X1_5
*866 OAI21X1_12
*867 _10_
*868 OAI21X1_12
*869 DFFSR_2
*870 _71_
*871 NAND2X1_15
*872 OAI21X1_13
*873 _12_
*874 OAI21X1_13
*875 DFFSR_4
*876 _72_
*877 OAI21X1_14
*878 OAI21X1_15
*879 _11_
*880 OAI21X1_15
*881 DFFSR_3
*882 _74_
*883 NAND2X1_16
*884 OAI21X1_16
*885 _76_
*886 NAND2X1_17
*887 OAI21X1_17
*888 _162_[1]
*889 OAI21X1_17
*890 BUFX2_3
*891 _162_[2]
*892 OAI21X1_18
*893 BUFX2_4
*894 _81_
*895 INVX1_9
*896 OAI21X1_19
*897 _162_[3]
*898 OAI21X1_19
*899 BUFX2_5
*900 _83_
*901 NAND2X1_19
*902 OAI21X1_20
*903 _162_[4]
*904 OAI21X1_20
*905 BUFX2_6
*906 _85_
*907 NAND2X1_20
*908 OAI21X1_21
*909 _162_[5]
*910 OAI21X1_21
*911 BUFX2_7
*912 _162_[6]
*913 OAI21X1_22
*914 BUFX2_8
*915 _162_[7]
*916 INVX1_11
*917 BUFX2_9
*918 _4_[0]
*919 MUX2X1_7
*920 DFFSR_21
*921 _4_[1]
*922 MUX2X1_8
*923 DFFSR_22
*924 _4_[2]
*925 MUX2X1_9
*926 DFFSR_23
*927 _4_[3]
*928 MUX2X1_10
*929 DFFSR_24
*930 _4_[4]
*931 MUX2X1_11
*932 DFFSR_25
*933 _4_[5]
*934 MUX2X1_12
*935 DFFSR_26
*936 _95_
*937 INVX1_18
*938 MUX2X1_13
*939 _4_[6]
*940 MUX2X1_13
*941 DFFSR_27
*942 _96_
*943 OAI21X1_23
*944 OAI21X1_24
*945 _99_
*946 AOI21X1_9
*947 OAI21X1_25
*948 _100_
*949 OAI21X1_25
*950 OAI21X1_28
*951 _101_
*952 OAI21X1_26
*953 NOR2X1_9
*954 _103_
*955 AND2X2_6
*956 OAI21X1_28
*957 _104_
*958 OAI21X1_27
*959 OAI21X1_28
*960 _2_[0]
*961 OAI21X1_28
*962 DFFSR_18
*963 _108_
*964 NAND2X1_22
*965 OAI22X1_1
*966 _109_
*967 AOI21X1_10
*968 OAI22X1_1
*969 _110_
*970 NAND3X1_7
*971 OAI21X1_29
*972 _111_
*973 OAI21X1_29
*974 OAI22X1_1
*975 _2_[1]
*976 OAI22X1_1
*977 DFFSR_19
*978 _112_
*979 NAND3X1_8
*980 OAI21X1_31
*981 _113_
*982 NOR2X1_10
*983 OAI21X1_31
*984 _114_
*985 OAI21X1_30
*986 OAI21X1_31
*987 _2_[2]
*988 OAI21X1_31
*989 DFFSR_20
*990 _116_
*991 NOR2X1_11
*992 NAND3X1_9
*993 _118_
*994 NAND2X1_23
*995 OAI21X1_32
*996 _6_
*997 OAI21X1_32
*998 DFFSR_17
*999 _119_
*1000 NAND2X1_24
*1001 OAI21X1_34
*1002 _120_
*1003 OAI21X1_33
*1004 OAI21X1_34
*1005 _8_
*1006 OAI21X1_34
*1007 DFFSR_16
*1008 _1_[0]
*1009 XNOR2X1_1
*1010 DFFSR_13
*1011 _122_
*1012 OAI21X1_35
*1013 AND2X2_7
*1014 _1_[1]
*1015 AND2X2_7
*1016 DFFSR_14
*1017 _1_[2]
*1018 AOI22X1_2
*1019 DFFSR_15
*1020 _126_
*1021 MUX2X1_14
*1022 OAI21X1_36
*1023 _127_
*1024 NAND2X1_26
*1025 OAI21X1_36
*1026 _0_[0]
*1027 OAI21X1_36
*1028 DFFSR_5
*1029 _129_
*1030 NOR2X1_15
*1031 OAI21X1_37
*1032 _130_
*1033 OAI21X1_37
*1034 XOR2X1_1
*1035 _131_
*1036 OAI21X1_38
*1037 XOR2X1_1
*1038 _0_[1]
*1039 XOR2X1_1
*1040 DFFSR_6
*1041 _135_
*1042 OAI21X1_39
*1043 AOI21X1_11
*1044 _136_
*1045 OAI21X1_40
*1046 AOI21X1_11
*1047 _137_
*1048 AOI21X1_11
*1049 AOI21X1_12
*1050 _0_[2]
*1051 AOI21X1_12
*1052 DFFSR_7
*1053 _138_
*1054 NOR2X1_16
*1055 AOI21X1_13
*1056 _139_
*1057 NOR2X1_17
*1058 AOI21X1_13
*1059 _140_
*1060 AOI21X1_13
*1061 OAI22X1_2
*1062 _141_
*1063 AOI21X1_14
*1064 OAI22X1_2
*1065 _0_[3]
*1066 OAI22X1_2
*1067 DFFSR_8
*1068 _144_
*1069 AND2X2_8
*1070 OAI21X1_41
*1071 _145_
*1072 NOR2X1_19
*1073 OAI21X1_41
*1074 _146_
*1075 OAI21X1_41
*1076 AOI22X1_3
*1077 _147_
*1078 AOI21X1_15
*1079 AOI22X1_3
*1080 _0_[4]
*1081 AOI22X1_3
*1082 DFFSR_9
*1083 _148_
*1084 AND2X2_9
*1085 AOI21X1_16
*1086 _149_
*1087 AOI21X1_16
*1088 OAI21X1_42
*1089 _150_
*1090 NAND2X1_29
*1091 NOR3X1_4
*1092 _151_
*1093 NOR3X1_4
*1094 OAI21X1_42
*1095 _152_
*1096 OAI21X1_42
*1097 AOI22X1_4
*1098 _153_
*1099 AOI21X1_17
*1100 AOI22X1_4
*1101 _0_[5]
*1102 AOI22X1_4
*1103 DFFSR_10
*1104 _154_
*1105 AOI22X1_5
*1106 AOI22X1_6
*1107 _155_
*1108 NOR2X1_20
*1109 AOI21X1_18
*1110 _156_
*1111 AOI21X1_18
*1112 AOI22X1_6
*1113 _0_[6]
*1114 AOI22X1_6
*1115 DFFSR_11
*1116 CSB
*1117 INVX8_4
*1118 SDO
*1119 BUFX2_1
*1120 oaddr[0]
*1121 BUFX2_2
*1122 oaddr[1]
*1123 BUFX2_3
*1124 oaddr[2]
*1125 BUFX2_4
*1126 oaddr[3]
*1127 BUFX2_5
*1128 oaddr[4]
*1129 BUFX2_6
*1130 oaddr[5]
*1131 BUFX2_7
*1132 oaddr[6]
*1133 BUFX2_8
*1134 oaddr[7]
*1135 BUFX2_9
*1136 odata[0]
*1137 BUFX2_10
*1138 odata[1]
*1139 BUFX2_11
*1140 odata[2]
*1141 BUFX2_12
*1142 odata[3]
*1143 BUFX2_13
*1144 odata[4]
*1145 BUFX2_14
*1146 odata[5]
*1147 BUFX2_15
*1148 odata[6]
*1149 BUFX2_16
*1150 odata[7]
*1151 BUFX2_17
*1152 rdstb
*1153 BUFX2_18
*1154 _165_
*1155 DFFSR_28
*1156 BUFX2_19
*1157 sdoenb
*1158 BUFX2_19
*1159 wrstb
*1160 BUFX2_20

*PORTS
*258 I
*417 I
*761 I
*775 I
*786 I
*800 I
*811 I
*825 I
*836 I
*850 I
*1116 I
*1118 O
*1120 O
*1122 O
*1124 O
*1126 O
*1128 O
*1130 O
*1132 O
*1134 O
*1136 O
*1138 O
*1140 O
*1142 O
*1144 O
*1146 O
*1148 O
*1150 O
*1152 O
*1157 O
*1159 O

*D_NET *1 0.01386
*CONN
*I *2:Y O *D INVX8
*I *3:A I *L 0.0173593
*I *4:A I *L 0.017346
*I *5:B I *L 0.0129035
*I *6:A I *L 0.0144193
*I *7:C I *L 0.0129138
*I *8:A I *L 0.017346
*I *9:A I *L 0.017346
*I *10:A I *L 0.0158812
*I *11:A I *L 0.017346
*I *12:C I *L 0.0129138
*I *13:A I *L 0.017346
*I *14:A I *L 0.0125
*I *15:B I *L 0.0150643
*CAP
1 1_1 0.0001893
2 1_2 0.00053268
3 1_3 0.00015834
4 1_4 0.0001971
5 1_5 0.00120528
6 1_6 6.57e-05
7 1_7 0.00079596
8 1_8 0.00010512
9 1_9 0.0004944
10 1_10 0.001548
11 1_11 0.0001314
12 1_12 0.00077988
13 1_13 0.00041688
14 1_14 0.000657
15 1_15 0.00032424
16 1_16 6.57e-05
17 1_17 0.00034334
18 1_18 0.00076212
19 1_19 0.00032424
20 1_20 0.00124828
21 1_21 0.00150162
22 1_22 0.0003285
23 1_23 0.0011169
24 1_24 0.00014624
25 1_25 0.0004218
*RES
1 *2:Y 1_1 0.8
2 1_1 1_2 2.45333
3 1_2 1_3 0.693333
4 1_3 1_4 0.8
5 1_4 *3:A 0
6 1_3 1_5 5.12
7 1_5 1_6 0.266667
8 1_6 *4:A 0
9 1_6 1_7 3.30667
10 1_7 1_8 0.426667
11 1_8 *5:B 0
12 1_7 1_9 2.13333
13 1_9 *6:A 0
14 1_2 1_10 8.23333
15 1_10 1_11 0.533333
16 1_11 *7:C 0
17 1_10 1_12 3.52
18 1_12 *8:A 0
19 1_1 1_13 1.92
20 1_13 1_14 2.66667
21 1_14 *9:A 0
22 1_13 1_15 1.49333
23 1_15 1_16 0.266667
24 1_16 1_17 1.22667
25 1_17 *10:A 0
26 1_16 1_18 3.09333
27 1_18 *11:A 0
28 1_15 1_19 1.49333
29 1_19 1_20 6.46667
30 1_20 *12:C 0
31 1_19 1_21 6.88
32 1_21 1_22 1.33333
33 1_22 *13:A 0
34 1_21 1_23 4.53333
35 1_23 1_24 0.426667
36 1_24 *14:A 0
37 1_23 1_25 1.81333
38 1_25 *15:B 0
*END
*D_NET *16 0.0143889
*CONN
*I *17:Y O *D INVX8
*I *18:A I *L 0.017346
*I *19:A I *L 0.0125
*I *20:A I *L 0.0158812
*I *21:C I *L 0.0150799
*I *22:B I *L 0.0129035
*I *23:C I *L 0.0129138
*I *24:A I *L 0.0173718
*I *25:A I *L 0.017346
*I *26:C I *L 0.0129138
*I *27:C I *L 0.0129138
*I *28:B I *L 0.0182038
*CAP
1 16_1 0.00062192
2 16_2 0.00010512
3 16_3 0.0002904
4 16_4 6.57e-05
5 16_5 0.00169514
6 16_6 0.00067184
7 16_7 6.57e-05
8 16_8 0.00060642
9 16_9 6.57e-05
10 16_10 0.00075294
11 16_11 0.0001314
12 16_12 0.0007884
13 16_13 0.00067184
14 16_14 5.79e-05
15 16_15 0.00179892
16 16_16 6.57e-05
17 16_17 0.00109656
18 16_18 0.000363
19 16_19 0.0023738
20 16_20 0.00210048
*RES
1 *17:Y 16_1 2.56
2 16_1 16_2 0.426667
3 16_2 *18:A 0
4 16_1 16_3 1.28
5 16_3 16_4 0.266667
6 16_4 *19:A 0
7 16_4 16_5 7.09333
8 16_5 *20:A 0
9 16_5 16_6 2.56
10 16_6 16_7 0.266667
11 16_7 *21:C 0
12 16_7 16_8 2.61333
13 16_8 16_9 0.266667
14 16_9 *22:B 0
15 16_9 16_10 3.36
16 16_10 16_11 0.533333
17 16_11 *23:C 0
18 16_10 16_12 3.2
19 16_12 16_13 2.56
20 16_13 *24:A 0
21 16_12 16_14 0.266667
22 16_14 16_15 8.21333
23 16_15 16_16 0.266667
24 16_16 *25:A 0
25 16_16 16_17 4.90667
26 16_17 16_18 1.6
27 16_18 *26:C 0
28 16_17 16_19 12.5
29 16_19 *27:C 0
30 16_14 16_20 9.38667
31 16_20 *28:B 0
*END
*D_NET *29 0.0108223
*CONN
*I *30:Y O *D NAND2X1
*I *31:C I *L 0.0150799
*I *32:S I *L 0.0204132
*I *33:S I *L 0.0204132
*I *34:B I *L 0.0179733
*I *35:C I *L 0.0150799
*I *36:C I *L 0.0150799
*I *37:C I *L 0.0150799
*I *38:S I *L 0.0204132
*I *39:C I *L 0.0150799
*I *40:D I *L 0.00940895
*CAP
1 29_1 0.0007536
2 29_2 0.00074112
3 29_3 0.0003285
4 29_4 0.00032424
5 29_5 0.00064518
6 29_6 0.0009855
7 29_7 6.57e-05
8 29_8 0.00076212
9 29_9 6.57e-05
10 29_10 9.264e-05
11 29_11 0.00040932
12 29_12 0.00014624
13 29_13 0.0009855
14 29_14 0.0013797
15 29_15 6.57e-05
16 29_16 0.0006603
17 29_17 0.00107784
18 29_18 0.0013334
*RES
1 *30:Y 29_1 3.41333
2 29_1 29_2 3.41333
3 29_2 29_3 1.33333
4 29_3 *31:C 0
5 29_2 29_4 1.49333
6 29_4 29_5 2.72
7 29_5 *32:S 0
8 29_4 29_6 4
9 29_6 29_7 0.266667
10 29_7 *33:S 0
11 29_7 29_8 3.09333
12 29_8 29_9 0.266667
13 29_9 *34:B 0
14 29_9 29_10 0.426667
15 29_10 29_11 1.81333
16 29_11 *35:C 0
17 29_11 29_12 0.426667
18 29_12 *36:C 0
19 29_10 29_13 4
20 29_13 29_14 5.6
21 29_14 29_15 0.266667
22 29_15 *37:C 0
23 29_15 29_16 2.93333
24 29_16 *38:S 0
25 29_13 29_17 4.90667
26 29_17 *39:C 0
27 29_1 29_18 6.73333
28 29_18 *40:D 0
*END
*D_NET *41 0.0107883
*CONN
*I *42:Y O *D INVX4
*I *43:CLK I *L 0.00937511
*I *44:CLK I *L 0.00937511
*I *45:CLK I *L 0.00937511
*I *46:CLK I *L 0.00937511
*I *47:CLK I *L 0.00937511
*I *48:CLK I *L 0.00937511
*I *49:CLK I *L 0.00937511
*I *50:CLK I *L 0.00937511
*I *51:CLK I *L 0.00937511
*I *52:CLK I *L 0.00937511
*CAP
1 41_1 0.0007149
2 41_2 0.0006258
3 41_3 6.57e-05
4 41_4 0.0010512
5 41_5 6.57e-05
6 41_6 0.00064518
7 41_7 6.57e-05
8 41_8 0.00180816
9 41_9 0.0002472
10 41_10 0.00133986
11 41_11 0.0002472
12 41_12 0.00131256
13 41_13 0.00041688
14 41_14 0.00038616
15 41_15 0.0003942
16 41_16 0.00073734
17 41_17 0.0001314
18 41_18 0.00053316
*RES
1 *42:Y 41_1 2.93333
2 41_1 41_2 2.66667
3 41_2 41_3 0.266667
4 41_3 *43:CLK 0
5 41_3 41_4 4.26667
6 41_4 41_5 0.266667
7 41_5 *44:CLK 0
8 41_5 41_6 2.72
9 41_6 41_7 0.266667
10 41_7 *45:CLK 0
11 41_7 41_8 7.57333
12 41_8 41_9 1.06667
13 41_9 *46:CLK 0
14 41_8 41_10 6.87333
15 41_10 41_11 1.06667
16 41_11 *47:CLK 0
17 41_10 41_12 5.97333
18 41_12 *48:CLK 0
19 41_1 41_13 1.92
20 41_13 41_14 1.70667
21 41_14 *49:CLK 0
22 41_13 41_15 1.6
23 41_15 *50:CLK 0
24 41_1 41_16 3.36
25 41_16 41_17 0.533333
26 41_17 *51:CLK 0
27 41_16 41_18 2.24
28 41_18 *52:CLK 0
*END
*D_NET *53 0.00915698
*CONN
*I *54:Q O *D DFFSR
*I *55:A I *L 0.00932456
*I *56:B I *L 0.0129035
*I *57:B I *L 0.0125119
*I *58:A I *L 0.0144193
*I *59:A I *L 0.0125
*I *60:A I *L 0.0125
*I *61:B I *L 0.0179733
*I *62:B I *L 0.0125119
*I *63:A I *L 0.0129068
*CAP
1 53_1 0.00180384
2 53_2 6.57e-05
3 53_3 0.00150494
4 53_4 0.0001314
5 53_5 0.00078744
6 53_6 0.000657
7 53_7 0.0001971
8 53_8 0.00019776
9 53_9 0.0007227
10 53_10 0.0002316
11 53_11 0.00010512
12 53_12 0.00018528
13 53_13 0.00010512
14 53_14 0.00093888
15 53_15 6.57e-05
16 53_16 0.00102492
17 53_17 0.00043248
*RES
1 *54:Q 53_1 8.10667
2 53_1 53_2 0.266667
3 53_2 *55:A 0
4 53_2 53_3 7.76
5 53_3 53_4 0.533333
6 53_4 *56:B 0
7 53_3 53_5 3.62667
8 53_5 53_6 2.66667
9 53_6 53_7 0.8
10 53_7 *57:B 0
11 53_6 53_8 0.853333
12 53_8 *58:A 0
13 53_5 53_9 2.93333
14 53_9 53_10 1.06667
15 53_10 53_11 0.426667
16 53_11 *59:A 0
17 53_10 53_12 0.853333
18 53_12 53_13 0.426667
19 53_13 *60:A 0
20 53_12 53_14 4.26667
21 53_14 53_15 0.266667
22 53_15 *61:B 0
23 53_15 53_16 4.16
24 53_16 *62:B 0
25 53_9 53_17 1.92
26 53_17 *63:A 0
*END
*D_NET *64 0.00967058
*CONN
*I *65:Y O *D INVX8
*I *66:B I *L 0.0179733
*I *67:B I *L 0.0179733
*I *68:B I *L 0.0182038
*I *69:B I *L 0.0182038
*I *70:B I *L 0.0179733
*I *71:B I *L 0.0182038
*I *72:B I *L 0.0179733
*I *73:B I *L 0.0182038
*I *74:A I *L 0.017346
*CAP
1 64_1 0.00130974
2 64_2 0.00049932
3 64_3 0.00093492
4 64_4 0.00116226
5 64_5 0.0015768
6 64_6 0.0001314
7 64_7 6.57e-05
8 64_8 0.00087252
9 64_9 0.00033672
10 64_10 6.57e-05
11 64_11 0.00054176
12 64_12 0.0001314
13 64_13 0.0002316
14 64_14 0.0001971
15 64_15 0.00161364
*RES
1 *65:Y 64_1 5.49333
2 64_1 64_2 2.02667
3 64_2 64_3 3.94667
4 64_3 64_4 5.17333
5 64_4 *66:B 0
6 64_3 64_5 6.4
7 64_5 64_6 0.533333
8 64_6 64_7 0.266667
9 64_7 *67:B 0
10 64_7 64_8 3.94667
11 64_8 *68:B 0
12 64_5 64_9 1.49333
13 64_9 *69:B 0
14 64_2 64_10 0.266667
15 64_10 *70:B 0
16 64_1 64_11 2.13333
17 64_11 *71:B 0
18 64_1 64_12 0.533333
19 64_12 *72:B 0
20 64_1 64_13 1.06667
21 64_13 64_14 0.8
22 64_14 *73:B 0
23 64_13 64_15 7.36
24 64_15 *74:A 0
*END
*D_NET *75 0.013313
*CONN
*I *76:Y O *D INVX4
*I *77:A I *L 0.0144193
*I *78:B I *L 0.0129035
*I *79:A I *L 0.0144193
*I *80:B I *L 0.0150643
*I *81:B I *L 0.0182038
*I *82:B I *L 0.0182038
*I *83:B I *L 0.0182038
*I *84:B I *L 0.0182038
*CAP
1 75_1 6.57e-05
2 75_2 0.0005256
3 75_3 0.00100034
4 75_4 0.00240864
5 75_5 0.00010512
6 75_6 0.00244668
7 75_7 6.57e-05
8 75_8 0.00044118
9 75_9 0.0010233
10 75_10 0.00083376
11 75_11 0.0001314
12 75_12 0.0007761
13 75_13 0.0017939
14 75_14 0.0002472
15 75_15 0.0014484
*RES
1 *76:Y 75_1 0.266667
2 75_1 75_2 2.13333
3 75_2 75_3 3.89333
4 75_3 *77:A 0
5 75_2 75_4 11.0933
6 75_4 75_5 0.426667
7 75_5 *78:B 0
8 75_4 75_6 10.1333
9 75_6 75_7 0.266667
10 75_7 *79:A 0
11 75_7 75_8 1.86667
12 75_8 *80:B 0
13 75_1 75_9 4.53333
14 75_9 75_10 3.84
15 75_10 75_11 0.533333
16 75_11 *81:B 0
17 75_10 75_12 3.46667
18 75_12 *82:B 0
19 75_9 75_13 9.6
20 75_13 75_14 1.06667
21 75_14 *83:B 0
22 75_13 75_15 6.61333
23 75_15 *84:B 0
*END
*D_NET *85 0.0070296
*CONN
*I *86:Y O *D NAND3X1
*I *87:A I *L 0.0173593
*I *88:A I *L 0.0186567
*I *89:B I *L 0.0182038
*I *90:B I *L 0.0150643
*I *91:B I *L 0.0182038
*I *92:A I *L 0.0144193
*I *93:B I *L 0.0182038
*I *94:B I *L 0.0129035
*CAP
1 85_1 0.0004521
2 85_2 0.00052134
3 85_3 0.00032904
4 85_4 0.0019743
5 85_5 6.57e-05
6 85_6 0.000657
7 85_7 0.00033672
8 85_8 6.57e-05
9 85_9 0.00100392
10 85_10 6.57e-05
11 85_11 0.0011826
12 85_12 0.0001314
13 85_13 0.00024408
*RES
1 *86:Y 85_1 1.86667
2 85_1 85_2 2.29333
3 85_2 *87:A 0
4 85_2 85_3 0.96
5 85_3 *88:A 0
6 85_1 85_4 8.26667
7 85_4 85_5 0.266667
8 85_5 *89:B 0
9 85_5 85_6 2.66667
10 85_6 *90:B 0
11 85_5 85_7 1.49333
12 85_7 85_8 0.266667
13 85_8 *91:B 0
14 85_8 85_9 4.48
15 85_9 85_10 0.266667
16 85_10 *92:A 0
17 85_10 85_11 4.8
18 85_11 85_12 0.533333
19 85_12 *93:B 0
20 85_11 85_13 1.06667
21 85_13 *94:B 0
*END
*D_NET *95 0.00622354
*CONN
*I *96:Y O *D BUFX4
*I *97:R I *L 0.0255048
*I *98:R I *L 0.0255048
*I *99:R I *L 0.0255048
*I *100:R I *L 0.0255048
*I *101:R I *L 0.0255048
*I *102:R I *L 0.0255048
*I *103:R I *L 0.0255048
*CAP
1 95_1 0.00058236
2 95_2 0.00019776
3 95_3 0.00099372
4 95_4 0.0013797
5 95_5 0.00056518
6 95_6 0.00010512
7 95_7 0.0010857
8 95_8 0.000657
9 95_9 0.000657
*RES
1 *96:Y 95_1 2.24
2 95_1 95_2 0.853333
3 95_2 *97:R 0
4 95_2 95_3 4.16
5 95_3 *98:R 0
6 95_3 95_4 5.6
7 95_4 *99:R 0
8 95_4 95_5 2.18667
9 95_5 95_6 0.426667
10 95_6 *100:R 0
11 95_6 95_7 4.53333
12 95_7 *101:R 0
13 95_5 95_8 2.66667
14 95_8 *102:R 0
15 95_1 95_9 2.66667
16 95_9 *103:R 0
*END
*D_NET *104 0.0044289
*CONN
*I *105:Q O *D DFFSR
*I *106:A I *L 0.00932456
*I *107:A I *L 0.0125
*I *108:B I *L 0.0125119
*I *109:C I *L 0.0164926
*I *110:A I *L 0.0144193
*I *111:B I *L 0.0182038
*I *112:B I *L 0.0182038
*CAP
1 104_1 0.00010512
2 104_2 6.57e-05
3 104_3 0.00027792
4 104_4 0.00018528
5 104_5 0.00010512
6 104_6 0.00064092
7 104_7 6.57e-05
8 104_8 0.00079236
9 104_9 0.000657
10 104_10 0.0003942
11 104_11 0.00059886
12 104_12 0.0001314
13 104_13 0.00040932
*RES
1 *105:Q 104_1 0.426667
2 104_1 104_2 0.266667
3 104_2 104_3 1.28
4 104_3 104_4 0.853333
5 104_4 104_5 0.426667
6 104_5 *106:A 0
7 104_4 104_6 2.88
8 104_6 104_7 0.266667
9 104_7 *107:A 0
10 104_7 104_8 3.52
11 104_8 *108:B 0
12 104_3 104_9 2.66667
13 104_9 *109:C 0
14 104_2 104_10 1.6
15 104_10 *110:A 0
16 104_2 104_11 2.50667
17 104_11 104_12 0.533333
18 104_12 *111:B 0
19 104_11 104_13 1.81333
20 104_13 *112:B 0
*END
*D_NET *113 0.00633044
*CONN
*I *114:Y O *D NAND2X1
*I *115:S I *L 0.0204132
*I *116:S I *L 0.0204132
*I *117:S I *L 0.0204132
*I *118:S I *L 0.0204132
*I *119:S I *L 0.0204132
*I *120:S I *L 0.0204132
*I *121:S I *L 0.0204132
*CAP
1 113_1 0.00075294
2 113_2 0.0002316
3 113_3 0.0003285
4 113_4 0.00032424
5 113_5 0.0003285
6 113_6 0.00127428
7 113_7 6.57e-05
8 113_8 0.00038304
9 113_9 0.0009198
10 113_10 0.0001971
11 113_11 5.79e-05
12 113_12 0.0007139
13 113_13 0.00075294
*RES
1 *114:Y 113_1 3.36
2 113_1 113_2 1.06667
3 113_2 113_3 1.33333
4 113_3 *115:S 0
5 113_2 113_4 1.49333
6 113_4 113_5 1.33333
7 113_5 *116:S 0
8 113_4 113_6 5.65333
9 113_6 113_7 0.266667
10 113_7 *117:S 0
11 113_7 113_8 1.70667
12 113_8 *118:S 0
13 113_1 113_9 3.73333
14 113_9 113_10 0.8
15 113_10 *119:S 0
16 113_9 113_11 0.266667
17 113_11 113_12 2.93333
18 113_12 *120:S 0
19 113_11 113_13 3.36
20 113_13 *121:S 0
*END
*D_NET *122 0.007424
*CONN
*I *123:Y O *D CLKBUF1
*I *124:CLK I *L 0.00937511
*I *125:CLK I *L 0.00937511
*I *126:CLK I *L 0.00937511
*I *127:CLK I *L 0.00937511
*I *128:CLK I *L 0.00937511
*I *129:CLK I *L 0.00937511
*CAP
1 122_1 0.0004599
2 122_2 6.57e-05
3 122_3 0.0010512
4 122_4 0.00056502
5 122_5 0.00106158
6 122_6 0.0001314
7 122_7 0.0016023
8 122_8 0.0001314
9 122_9 0.00093066
10 122_10 0.00142484
*RES
1 *123:Y 122_1 1.86667
2 122_1 122_2 0.266667
3 122_2 *124:CLK 0
4 122_2 122_3 4.26667
5 122_3 122_4 2.29333
6 122_4 *125:CLK 0
7 122_3 122_5 4.85333
8 122_5 122_6 0.533333
9 122_6 *126:CLK 0
10 122_5 122_7 7.2
11 122_7 122_8 0.533333
12 122_8 *127:CLK 0
13 122_7 122_9 4.10667
14 122_9 *128:CLK 0
15 122_7 122_10 7.32667
16 122_10 *129:CLK 0
*END
*D_NET *130 0.00628308
*CONN
*I *131:Y O *D CLKBUF1
*I *132:CLK I *L 0.00937511
*I *133:CLK I *L 0.00937511
*I *134:CLK I *L 0.00937511
*I *135:CLK I *L 0.00937511
*I *136:CLK I *L 0.00937511
*I *137:A I *L 0.0373134
*CAP
1 130_1 0.00086496
2 130_2 0.00082782
3 130_3 6.57e-05
4 130_4 0.00044808
5 130_5 0.0001971
6 130_6 0.00096356
7 130_7 0.0004642
8 130_8 0.00147468
9 130_9 0.0001314
10 130_10 0.00084558
*RES
1 *131:Y 130_1 3.84
2 130_1 130_2 3.36
3 130_2 130_3 0.266667
4 130_3 *132:CLK 0
5 130_3 130_4 1.92
6 130_4 130_5 0.8
7 130_5 *133:CLK 0
8 130_4 130_6 5.07333
9 130_6 130_7 2.23333
10 130_7 *134:CLK 0
11 130_6 130_8 6.72
12 130_8 *135:CLK 0
13 130_1 130_9 0.533333
14 130_9 *136:CLK 0
15 130_1 130_10 3.78667
16 130_10 *137:A 0
*END
*D_NET *138 0.00662334
*CONN
*I *139:Y O *D CLKBUF1